674

I      21.31798596      20.20720754      23.03905282
Cl      -9.40075113      -9.03049112      23.03905282
Cl      -9.40075113      -3.25700371      23.03905282
Cl      -3.25700371     -14.43371960      23.03905282
I      -9.40075113       2.51648423      23.03905282
I      -9.40075113       8.28997218      23.03905282
Cl      -9.40075113      15.54449854      23.03905282
Cl      -9.40075113      21.31798596      23.03905282
Cl      21.31798596      -8.66023165      23.03905282
Cl     -23.03905282     -21.50311596     -18.43124225
Cl     -23.03905282     -21.50311596     -12.28749483
Cl     -23.03905282     -21.50311596      -6.14374742
Cl     -23.03905282     -21.50311596       0.00000000
Cl     -23.03905282     -21.50311596       6.14374742
Cl     -23.03905282     -21.50311596      12.28749483
Cl      -6.14374742     -17.32046383      23.03905282
Cl     -23.03905282     -21.50311596      18.43124225
Cl     -23.03905282     -18.61637225     -20.20720754
Cl     -23.03905282     -18.61637225     -14.43371960
Cl     -23.03905282     -18.61637225      -8.66023165
Cl     -23.03905282     -18.61637225      -2.88674371
Cl     -23.03905282     -18.61637225       2.88674371
Cl     -23.03905282     -18.61637225       8.66023165
Cl     -23.03905282     -18.61637225      14.43371960
Cl     -23.03905282     -18.61637225      20.20720754
Cl     -23.03905282     -15.35936854     -17.32046383
I     -23.03905282     -15.35936854     -11.54697589
Cl      -3.25700371      -8.66023165      23.03905282
Cl     -23.03905282     -15.35936854      -5.77348794
Cl      -3.25700371      -2.88674371      23.03905282
Cl     -23.03905282     -15.35936854       0.00000000
Cl      -3.25700371       2.88674371      23.03905282
I     -23.03905282     -15.35936854       5.77348794
Cl      -3.25700371       8.66023165      23.03905282
Cl     -23.03905282     -15.35936854      11.54697589
Cl      -3.25700371      14.43371960      23.03905282
Cl     -23.03905282     -15.35936854      17.32046383
I      -3.25700371      20.20720754      23.03905282
Cl     -23.03905282     -12.47262484     -21.31798596
Cl      21.31798596      -2.88674371      23.03905282
I       0.00000000     -17.32046383      23.03905282
Cl     -23.03905282     -12.47262484     -15.54449854
I       6.14374742     -17.32046383      23.03905282
Cl      15.17423854     -20.57746701      23.03905282
Cl     -23.03905282     -12.47262484      -8.66023165
I     -23.03905282     -12.47262484      -2.88674371
Cl       6.14374742     -11.54697589      23.03905282
I      15.17423854     -14.80397907      23.03905282
Cl     -23.03905282     -12.47262484       2.88674371
I     -23.03905282     -12.47262484       8.66023165
Cl       6.14374742      -5.77348794      23.03905282
Cl      15.17423854      -9.03049112      23.03905282
Cl     -23.03905282     -12.47262484      15.54449854
I     -23.03905282     -12.47262484      21.31798596
Cl       6.14374742       0.00000000      23.03905282
I      15.17423854      -3.25700371      23.03905282
Cl     -23.03905282      -9.21562113     -17.32046383
Cl     -23.03905282      -9.21562113     -11.54697589
Cl       6.14374742       5.77348794      23.03905282
I      15.17423854       2.51648423      23.03905282
Cl     -23.03905282      -9.21562113      -5.77348794
I     -23.03905282      -9.21562113       0.00000000
I      15.17423854       8.28997218      23.03905282
Cl       6.14374742      11.54697589      23.03905282
Cl     -23.03905282      -9.21562113       5.77348794
Cl     -23.03905282      -9.21562113      11.54697589
Cl      15.17423854      15.54449854      23.03905282
I       6.14374742      17.32046383      23.03905282
Cl     -23.03905282      -9.21562113      17.32046383
Cl     -23.03905282      -6.32887742     -20.20720754
Cl     -23.03905282      -6.32887742     -14.43371960
Cl     -21.68824596      23.03905282     -20.94772649
I     -21.68824596      23.03905282     -15.17423854
Cl     -21.68824596      23.03905282      -9.40075113
Cl     -21.68824596      23.03905282      -3.62726318
Cl     -21.68824596      23.03905282       3.62726318
Cl     -21.68824596      23.03905282       9.40075113
Cl     -21.68824596      23.03905282      15.17423854
I     -21.68824596      23.03905282      20.94772649
Cl     -18.43124225      23.03905282     -17.32046383
Cl     -18.43124225      23.03905282     -11.54697589
Cl     -18.43124225      23.03905282      -5.77348794
Cl     -18.43124225      23.03905282       0.00000000
Cl     -18.43124225      23.03905282       5.77348794
Cl     -18.43124225      23.03905282      11.54697589
Cl     -18.43124225      23.03905282      17.32046383
Cl     -15.54449854      23.03905282     -20.20720754
Cl     -15.54449854      23.03905282     -14.43371960
Cl     -15.54449854      23.03905282      -8.66023165
Cl     -15.54449854      23.03905282      -2.88674371
Cl     -15.54449854      23.03905282       2.88674371
I     -15.54449854      23.03905282       8.66023165
Cl     -15.54449854      23.03905282      14.43371960
Cl     -15.54449854      23.03905282      20.20720754
Cl     -12.28749483      23.03905282     -17.69072331
Cl     -12.28749483      23.03905282     -11.91723536
Cl     -12.28749483      23.03905282      -6.14374742
Cl     -12.28749483      23.03905282      -0.37025947
I     -12.28749483      23.03905282       5.40322847
I     -12.28749483      23.03905282      11.17671641
Cl     -12.28749483      23.03905282      18.43124225
Cl      -9.40075113      23.03905282     -21.31798596
Cl      -9.40075113      23.03905282     -15.54449854
Cl      -9.40075113      23.03905282      -8.28997218
Cl      -9.40075113      23.03905282      -2.51648423
I      -9.40075113      23.03905282       3.25700371
I      -9.40075113      23.03905282       9.03049112
I      -9.40075113      23.03905282      14.80397907
Cl      -9.40075113      23.03905282      20.57746701
Cl      15.17423854      21.31798596      23.03905282
I      -6.14374742      23.03905282     -17.32046383
Cl      -6.14374742      23.03905282     -11.54697589
Cl      -6.14374742      23.03905282      -5.77348794
Cl      -6.14374742      23.03905282       0.00000000
I      -6.14374742      23.03905282       5.77348794
I      -6.14374742      23.03905282      11.54697589
Cl      -6.14374742      23.03905282      17.32046383
I      -3.25700371      23.03905282     -20.20720754
I      -3.25700371      23.03905282     -14.43371960
Cl      -3.25700371      23.03905282      -8.66023165
Cl      -3.25700371      23.03905282      -2.88674371
Cl      -3.25700371      23.03905282       2.88674371
I      -3.25700371      23.03905282       8.66023165
Cl      -3.25700371      23.03905282      14.43371960
I      -3.25700371      23.03905282      20.20720754
I       0.00000000      23.03905282     -18.06098278
I       0.00000000      23.03905282     -12.28749483
Cl       0.00000000      23.03905282      -6.51400689
Cl       0.00000000      23.03905282      -0.74051895
Cl       0.00000000      23.03905282       6.51400689
Cl       0.00000000      23.03905282      12.28749483
I       0.00000000      23.03905282      18.06098278
I       2.88674371      23.03905282     -20.20720754
I       2.88674371      23.03905282     -14.43371960
Cl       2.88674371      23.03905282      -8.66023165
Cl       2.88674371      23.03905282      -2.88674371
Cl       2.88674371      23.03905282       2.88674371
Cl       2.88674371      23.03905282       8.66023165
Cl       2.88674371      23.03905282      14.43371960
I       2.88674371      23.03905282      20.20720754
I       6.14374742      23.03905282     -17.32046383
I       6.14374742      23.03905282     -11.54697589
Cl       6.14374742      23.03905282      -5.77348794
Cl       6.14374742      23.03905282       0.00000000
Cl       6.14374742      23.03905282       5.77348794
Cl       6.14374742      23.03905282      11.54697589
Cl       6.14374742      23.03905282      17.32046383
Cl       9.03049112      23.03905282     -20.20720754
Cl       9.03049112      23.03905282     -14.43371960
Cl       9.03049112      23.03905282      -8.66023165
Cl       9.03049112      23.03905282      -2.88674371
Cl       9.03049112      23.03905282       2.88674371
Cl       9.03049112      23.03905282       8.66023165
Cl       9.03049112      23.03905282      14.43371960
Cl       9.03049112      23.03905282      20.20720754
Cl      12.28749483      23.03905282     -18.43124225
Cl      12.10236483      23.03905282     -11.73210536
I      12.10236483      23.03905282      -5.95861742
Cl      12.10236483      23.03905282      -0.18513000
Cl      12.10236483      23.03905282       5.58835794
I      12.28749483      23.03905282      12.65775431
Cl      12.28749483      23.03905282      18.43124225
Cl      15.17423854      23.03905282     -20.20720754
Cl      15.17423854      23.03905282     -14.43371960
I      15.17423854      23.03905282      -8.66023165
Cl      15.17423854      23.03905282      -2.88674371
I      15.17423854      23.03905282       2.88674371
Cl      15.17423854      23.03905282       8.66023165
I      15.17423854      23.03905282      14.43371960
Cl      15.17423854      23.03905282      20.20720754
Cl      18.43124225      23.03905282     -17.32046383
Cl      18.43124225      23.03905282     -11.54697589
Cl      18.43124225      23.03905282      -5.77348794
Cl      18.43124225      23.03905282       0.00000000
Cl      18.43124225      23.03905282       5.77348794
Cl      18.43124225      23.03905282      11.54697589
Cl      18.43124225      23.03905282      17.32046383
I      21.31798596      23.03905282     -20.20720754
Cl      21.31798596      23.03905282     -14.43371960
Cl      21.31798596      23.03905282      -8.66023165
Cl      21.31798596      23.03905282      -2.88674371
Cl      21.31798596      23.03905282       2.88674371
Cl      21.31798596      23.03905282       8.66023165
Cl      21.31798596      23.03905282      14.43371960
Cl      21.31798596      23.03905282      20.20720754
Cl      21.31798596      14.43371960      23.03905282
Cl       9.03049112     -20.20720754      23.03905282
Cl     -23.03905282      -6.32887742      -8.66023165
I     -23.03905282      -6.32887742      -2.88674371
Cl      18.43124225     -17.32046383      23.03905282
Cl       9.03049112     -14.43371960      23.03905282
I     -23.03905282      -6.32887742       2.88674371
Cl     -23.03905282      -6.32887742       8.66023165
Cl      18.43124225     -11.54697589      23.03905282
Cl       9.03049112      -8.66023165      23.03905282
Cl     -23.03905282      -6.32887742      14.43371960
Cl     -23.03905282      -6.32887742      20.20720754
Cl      18.43124225      -5.77348794      23.03905282
Cl       9.03049112      -2.88674371      23.03905282
Cl     -23.03905282      -3.07187371     -17.32046383
Cl     -23.03905282      -3.07187371     -11.54697589
I      18.43124225       0.00000000      23.03905282
I       9.03049112       2.88674371      23.03905282
I     -23.03905282      -3.07187371      -5.77348794
I     -23.03905282      -3.07187371       0.00000000
I      18.43124225       5.77348794      23.03905282
I     -23.03905282      -3.07187371       5.77348794
Cl       9.03049112       8.66023165      23.03905282
Cl      18.43124225      11.54697589      23.03905282
Cl     -23.03905282      -3.07187371      11.54697589
Cl     -23.03905282      -3.07187371      17.32046383
Cl       9.03049112      14.43371960      23.03905282
Cl      18.43124225      17.32046383      23.03905282
Cl      21.50311596     -23.03905282     -11.54697589
Cl      21.50311596     -23.03905282      -5.77348794
Cl      21.50311596     -23.03905282       0.00000000
Cl      21.50311596     -23.03905282       5.77348794
Cl      21.50311596     -23.03905282      11.54697589
Cl      21.68824596     -23.03905282      17.50559330
Cl     -21.68824596     -23.03905282     -17.87585278
Cl     -21.68824596     -23.03905282     -12.10236483
I     -21.68824596     -23.03905282      -6.32887742
Cl     -21.68824596     -23.03905282      -0.55538947
Cl     -21.50311596     -23.03905282       6.51400689
Cl     -21.50311596     -23.03905282      12.28749483
Cl     -21.50311596     -23.03905282      18.06098278
Cl     -18.61637225     -23.03905282     -20.20720754
Cl     -18.61637225     -23.03905282     -14.43371960
Cl     -18.61637225     -23.03905282      -8.66023165
Cl     -18.61637225     -23.03905282      -2.88674371
I     -18.61637225     -23.03905282       2.88674371
Cl     -18.61637225     -23.03905282       8.66023165
Cl     -18.61637225     -23.03905282      14.43371960
Cl     -18.61637225     -23.03905282      20.20720754
Cl     -15.35936854     -23.03905282     -17.32046383
Cl     -23.03905282      -0.18513000     -20.20720754
Cl     -15.35936854     -23.03905282     -11.54697589
Cl     -15.35936854     -23.03905282      -5.77348794
Cl     -15.35936854     -23.03905282       0.00000000
Cl     -15.35936854     -23.03905282       5.77348794
I     -15.35936854     -23.03905282      11.54697589
Cl     -15.35936854     -23.03905282      17.32046383
I     -12.47262484     -23.03905282     -21.31798596
Cl     -12.47262484     -23.03905282     -15.54449854
Cl     -12.47262484     -23.03905282      -8.28997218
Cl     -12.47262484     -23.03905282      -2.51648423
Cl     -12.47262484     -23.03905282       3.25700371
Cl     -12.47262484     -23.03905282       9.03049112
Cl     -12.47262484     -23.03905282      14.80397907
Cl     -12.47262484     -23.03905282      20.57746701
Cl      -9.21562113     -23.03905282     -17.69072331
Cl      -9.21562113     -23.03905282     -11.91723536
Cl      -9.21562113     -23.03905282      -6.14374742
I      -9.21562113     -23.03905282      -0.37025947
Cl      -9.21562113     -23.03905282       5.40322847
I      -9.21562113     -23.03905282      11.17671641
I      -6.32887742     -23.03905282     -20.20720754
Cl      -6.32887742     -23.03905282     -14.43371960
Cl      -6.32887742     -23.03905282      -8.66023165
I      -6.32887742     -23.03905282      -2.88674371
Cl      -6.32887742     -23.03905282       2.88674371
I      -6.32887742     -23.03905282       8.66023165
I      -6.32887742     -23.03905282      14.43371960
I      -6.32887742     -23.03905282      20.20720754
Cl      -3.07187371     -23.03905282     -17.32046383
Cl      -3.07187371     -23.03905282     -11.54697589
Cl      -3.07187371     -23.03905282      -5.77348794
Cl      -3.07187371     -23.03905282       0.00000000
Cl      -3.07187371     -23.03905282       5.77348794
I      -3.07187371     -23.03905282      11.54697589
I      -3.07187371     -23.03905282      17.32046383
Cl      -0.18513000     -23.03905282     -20.20720754
Cl      -0.18513000     -23.03905282     -14.43371960
Cl      -0.18513000     -23.03905282      -8.66023165
Cl      -0.18513000     -23.03905282      -2.88674371
Cl      -0.18513000     -23.03905282       2.88674371
Cl      -0.18513000     -23.03905282       8.66023165
I      -0.18513000     -23.03905282      14.43371960
I      -0.18513000     -23.03905282      20.20720754
Cl       2.88674371     -23.03905282     -17.87585278
Cl       2.88674371     -23.03905282     -12.10236483
Cl       2.88674371     -23.03905282      -6.32887742
Cl       2.88674371     -23.03905282      -0.55538947
I       3.07187371     -23.03905282       6.51400689
Cl       3.07187371     -23.03905282      12.28749483
Cl       3.07187371     -23.03905282      18.06098278
Cl       5.95861742     -23.03905282     -20.20720754
Cl       5.95861742     -23.03905282     -14.43371960
Cl       5.95861742     -23.03905282      -8.66023165
Cl       5.95861742     -23.03905282      -2.88674371
I       5.95861742     -23.03905282       2.88674371
I       5.95861742     -23.03905282       8.66023165
Cl       5.95861742     -23.03905282      14.43371960
Cl       5.95861742     -23.03905282      20.20720754
Cl       9.21562113     -23.03905282     -17.32046383
Cl       9.21562113     -23.03905282     -11.54697589
I       9.21562113     -23.03905282      -5.77348794
I       9.21562113     -23.03905282       0.00000000
I       9.21562113     -23.03905282       5.77348794
I       9.21562113     -23.03905282      11.54697589
Cl       9.21562113     -23.03905282      17.32046383
I      12.10236483     -23.03905282     -21.31798596
Cl      12.10236483     -23.03905282     -15.54449854
Cl      12.10236483     -23.03905282      -8.66023165
Cl      12.10236483     -23.03905282      -2.88674371
I      12.10236483     -23.03905282       2.88674371
I      12.10236483     -23.03905282       8.66023165
Cl      12.10236483     -23.03905282      15.54449854
Cl      12.10236483     -23.03905282      21.31798596
Cl      15.35936854     -23.03905282     -17.32046383
Cl      15.35936854     -23.03905282     -11.54697589
Cl      15.35936854     -23.03905282      -5.77348794
Cl      15.35936854     -23.03905282       0.00000000
I      15.35936854     -23.03905282       5.77348794
Cl      15.35936854     -23.03905282      11.54697589
Cl      15.35936854     -23.03905282      17.32046383
Cl      18.24611225     -23.03905282     -20.20720754
Cl      18.24611225     -23.03905282     -14.43371960
Cl      18.24611225     -23.03905282      -8.66023165
Cl      18.24611225     -23.03905282      -2.88674371
Cl      18.24611225     -23.03905282       2.88674371
Cl      18.24611225     -23.03905282       8.66023165
Cl      18.24611225     -23.03905282      14.43371960
Cl      18.24611225     -23.03905282      20.20720754
Cl      21.50311596     -23.03905282     -17.32046383
Cl     -23.03905282      -0.18513000     -14.43371960
Cl       0.00000000     -11.54697589      23.03905282
Cl     -23.03905282      -0.18513000      -8.66023165
Cl       0.00000000      -5.77348794      23.03905282
I     -23.03905282      -0.18513000      -2.88674371
I       9.03049112      20.20720754      23.03905282
I     -23.03905282      -0.18513000       2.88674371
Cl       0.00000000       0.00000000      23.03905282
I     -23.03905282      -0.18513000       8.66023165
Cl       0.00000000       5.77348794      23.03905282
Cl     -23.03905282      -0.18513000      14.43371960
Cl      21.31798596       8.66023165      23.03905282
Cl       0.00000000      11.54697589      23.03905282
Cl     -23.03905282      -0.18513000      20.20720754
Cl     -23.03905282       3.07187371     -17.32046383
I       0.00000000      17.32046383      23.03905282
Cl     -23.03905282       3.07187371     -11.54697589
Cl       2.88674371     -20.20720754      23.03905282
Cl      -6.14374742     -11.54697589      23.03905282
Cl      23.03905282     -21.50311596     -18.43124225
I      23.03905282     -21.50311596     -12.28749483
Cl      23.03905282     -21.50311596      -6.14374742
Cl      23.03905282     -21.50311596       0.00000000
Cl      23.03905282     -21.50311596       6.14374742
Cl      23.03905282     -21.50311596      12.28749483
Cl      23.03905282     -21.50311596      18.43124225
Cl     -23.03905282       3.07187371      -5.77348794
Cl      23.03905282     -18.61637225     -20.20720754
I      23.03905282     -18.61637225     -14.43371960
I      23.03905282     -18.61637225      -8.66023165
Cl      23.03905282     -18.61637225      -2.88674371
Cl      23.03905282     -18.61637225       2.88674371
Cl      23.03905282     -18.61637225       8.66023165
Cl      23.03905282     -18.61637225      14.43371960
I      23.03905282     -18.61637225      20.20720754
Cl      -6.14374742      -5.77348794      23.03905282
Cl     -23.03905282       3.07187371       0.00000000
Cl      12.28749483     -18.43124225      23.03905282
Cl      23.03905282     -15.35936854     -17.32046383
Cl      23.03905282     -15.35936854     -11.54697589
Cl      23.03905282     -15.35936854      -5.77348794
I      23.03905282     -15.35936854       0.00000000
Cl      23.03905282     -15.35936854       5.77348794
I      23.03905282     -15.35936854      11.54697589
Cl      23.03905282     -15.35936854      17.32046383
Cl     -23.03905282       3.07187371       5.77348794
Cl      23.03905282     -12.47262484     -20.20720754
Cl      23.03905282     -12.47262484     -14.43371960
Cl      23.03905282     -12.47262484      -8.66023165
Cl      23.03905282     -12.47262484      -2.88674371
Cl      23.03905282     -12.47262484       2.88674371
I      23.03905282     -12.47262484       8.66023165
Cl      23.03905282     -12.47262484      14.43371960
Cl      23.03905282     -12.47262484      20.20720754
Cl      -6.14374742       0.00000000      23.03905282
Cl     -23.03905282       3.07187371      11.54697589
Cl      12.10236483     -11.36184589      23.03905282
Cl      23.03905282      -9.21562113     -18.43124225
Cl      23.03905282      -9.21562113     -11.54697589
Cl      23.03905282      -9.21562113      -5.77348794
Cl      23.03905282      -9.21562113       0.00000000
Cl      23.03905282      -9.21562113       5.77348794
Cl      23.03905282      -9.21562113      11.54697589
Cl      23.03905282      -9.21562113      18.43124225
Cl     -23.03905282       3.07187371      17.32046383
Cl      23.03905282      -6.32887742     -20.20720754
Cl      23.03905282      -6.32887742     -14.43371960
Cl      23.03905282      -6.32887742      -8.66023165
I      23.03905282      -6.32887742      -2.88674371
Cl      23.03905282      -6.32887742       2.88674371
Cl      23.03905282      -6.32887742       8.66023165
Cl      23.03905282      -6.32887742      14.43371960
Cl      23.03905282      -6.32887742      20.20720754
I      -6.14374742       5.77348794      23.03905282
Cl     -23.03905282       5.95861742     -20.20720754
Cl      12.10236483      -5.58835794      23.03905282
I      23.03905282      -3.07187371     -17.32046383
Cl      23.03905282      -3.07187371     -11.54697589
Cl      23.03905282      -3.07187371      -5.77348794
Cl      23.03905282      -3.07187371       0.00000000
Cl      23.03905282      -3.07187371       5.77348794
Cl      23.03905282      -3.07187371      11.54697589
Cl      23.03905282      -3.07187371      17.32046383
Cl     -23.03905282       5.95861742     -14.43371960
I      23.03905282      -0.18513000     -20.20720754
Cl      23.03905282      -0.18513000     -14.43371960
Cl      23.03905282      -0.18513000      -8.66023165
I      23.03905282      -0.18513000      -2.88674371
I      23.03905282      -0.18513000       2.88674371
I      23.03905282      -0.18513000       8.66023165
Cl      23.03905282      -0.18513000      14.43371960
Cl      23.03905282      -0.18513000      20.20720754
Cl      -6.14374742      11.54697589      23.03905282
Cl     -23.03905282       5.95861742      -8.66023165
I      12.10236483       0.18513000      23.03905282
Cl      23.03905282       3.07187371     -17.32046383
Cl      23.03905282       3.07187371     -11.54697589
I      23.03905282       3.07187371      -5.77348794
I      23.03905282       3.07187371       0.00000000
I      23.03905282       3.07187371       5.77348794
Cl      23.03905282       3.07187371      11.54697589
Cl      23.03905282       3.07187371      17.32046383
I     -23.03905282       5.95861742      -2.88674371
Cl      23.03905282       5.95861742     -20.20720754
Cl      23.03905282       5.95861742     -14.43371960
Cl      23.03905282       5.95861742      -8.66023165
I      23.03905282       5.95861742      -2.88674371
I      23.03905282       5.95861742       2.88674371
Cl      23.03905282       5.95861742       8.66023165
Cl      23.03905282       5.95861742      14.43371960
Cl      23.03905282       5.95861742      20.20720754
Cl     -23.03905282       5.95861742       2.88674371
Cl      -6.14374742      17.32046383      23.03905282
I      23.03905282       9.21562113     -17.32046383
Cl      23.03905282       9.21562113     -11.54697589
Cl      23.03905282       9.21562113      -5.77348794
I      23.03905282       9.21562113       0.00000000
Cl      23.03905282       9.21562113       5.77348794
Cl      23.03905282       9.21562113      11.54697589
Cl      23.03905282       9.21562113      17.32046383
I      12.10236483       5.95861742      23.03905282
Cl      23.03905282      12.10236483     -21.31798596
Cl      23.03905282      12.10236483     -15.54449854
Cl      23.03905282      12.10236483      -8.66023165
Cl      23.03905282      12.10236483      -2.88674371
Cl      23.03905282      12.10236483       2.88674371
I      23.03905282      12.10236483       8.66023165
Cl      23.03905282      12.10236483      15.54449854
Cl      23.03905282      12.10236483      21.31798596
Cl     -23.03905282       5.95861742       8.66023165
Cl     -23.03905282       5.95861742      14.43371960
Cl      23.03905282      15.35936854     -17.32046383
Cl      23.03905282      15.35936854     -11.54697589
I      23.03905282      15.35936854      -5.77348794
Cl      23.03905282      15.35936854       0.00000000
Cl      23.03905282      15.35936854       5.77348794
Cl      23.03905282      15.35936854      11.54697589
Cl      23.03905282      15.35936854      17.32046383
Cl      12.10236483      11.73210536      23.03905282
Cl      23.03905282      18.24611225     -20.20720754
Cl      23.03905282      18.24611225     -14.43371960
Cl      23.03905282      18.24611225      -8.66023165
I      23.03905282      18.24611225      -2.88674371
Cl      23.03905282      18.24611225       2.88674371
Cl      23.03905282      18.24611225       8.66023165
Cl      23.03905282      18.24611225      14.43371960
Cl      23.03905282      18.24611225      20.20720754
Cl     -23.03905282       5.95861742      20.20720754
Cl      -3.25700371     -20.20720754      23.03905282
Cl      12.10236483      17.50559330      23.03905282
I      23.03905282      21.50311596     -17.32046383
Cl      23.03905282      21.50311596     -11.54697589
Cl      23.03905282      21.50311596      -5.77348794
Cl      23.03905282      21.50311596       0.00000000
Cl      23.03905282      21.50311596       5.77348794
Cl      23.03905282      21.50311596      11.54697589
Cl      23.03905282      21.50311596      17.32046383
Cl     -23.03905282       9.21562113     -17.32046383
Cl     -23.03905282       9.21562113     -11.54697589
I     -23.03905282       9.21562113      -5.77348794
Cl       2.88674371     -14.43371960      23.03905282
I     -23.03905282       9.21562113       0.00000000
Cl       2.88674371      -8.66023165      23.03905282
Cl     -23.03905282       9.21562113       5.77348794
Cl       2.88674371      -2.88674371      23.03905282
Cl     -23.03905282       9.21562113      11.54697589
Cl       2.88674371       2.88674371      23.03905282
Cl     -23.03905282       9.21562113      17.32046383
Cl       2.88674371       8.66023165      23.03905282
Cl     -23.03905282      12.10236483     -21.31798596
I       2.88674371      14.43371960      23.03905282
Cl     -23.03905282      12.10236483     -15.54449854
I       2.88674371      20.20720754      23.03905282
I      21.31798596       2.88674371      23.03905282
Cl     -21.50311596     -21.50311596      23.03905282
I     -23.03905282      12.10236483      -8.28997218
I     -21.50311596     -15.35936854      23.03905282
I     -23.03905282      12.10236483      -2.51648423
I     -21.50311596      -9.21562113      23.03905282
I     -23.03905282      12.10236483       3.25700371
Cl     -21.50311596      -3.07187371      23.03905282
Cl     -23.03905282      12.10236483       9.03049112
Cl     -21.50311596       3.07187371      23.03905282
Cl     -23.03905282      12.10236483      14.80397907
Cl     -21.50311596       9.21562113      23.03905282
I     -23.03905282      12.10236483      20.57746701
Cl     -21.50311596      15.35936854      23.03905282
Cl     -23.03905282      15.35936854     -17.69072331
Cl     -21.50311596      21.50311596      23.03905282
Cl     -23.03905282      15.35936854     -11.91723536
I      21.31798596     -20.20720754      23.03905282
I     -18.43124225     -17.32046383      23.03905282
I     -23.03905282      15.35936854      -6.14374742
I     -18.43124225     -11.54697589      23.03905282
I     -23.03905282      15.35936854      -0.37025947
I     -18.43124225      -5.77348794      23.03905282
Cl     -23.03905282      15.35936854       5.40322847
Cl     -18.43124225       0.00000000      23.03905282
Cl     -23.03905282      15.35936854      11.17671641
I     -18.43124225       5.77348794      23.03905282
Cl     -23.03905282      15.35936854      18.43124225
Cl     -18.43124225      11.54697589      23.03905282
Cl     -23.03905282      18.24611225     -20.20720754
Cl     -18.43124225      17.32046383      23.03905282
Cl     -23.03905282      18.24611225     -14.43371960
Cl     -23.03905282      18.24611225      -8.66023165
Cl     -15.54449854     -20.20720754      23.03905282
I     -23.03905282      18.24611225      -2.88674371
I     -15.54449854     -14.43371960      23.03905282
Cl     -23.03905282      18.24611225       2.88674371
I     -15.54449854      -8.66023165      23.03905282
Cl     -23.03905282      18.24611225       8.66023165
Cl     -15.54449854      -2.88674371      23.03905282
Cl     -23.03905282      18.24611225      14.43371960
I     -15.54449854       2.88674371      23.03905282
Cl     -23.03905282      18.24611225      20.20720754
I     -15.54449854       8.66023165      23.03905282
Cl     -23.03905282      21.50311596     -17.32046383
Cl     -15.54449854      14.43371960      23.03905282
Cl     -23.03905282      21.50311596     -11.54697589
Cl     -15.54449854      20.20720754      23.03905282
Cl     -23.03905282      21.50311596      -5.77348794
Cl      21.31798596     -14.43371960      23.03905282
Cl     -12.28749483     -18.43124225      23.03905282
Cl     -23.03905282      21.50311596       0.00000000
I     -12.47262484     -11.36184589      23.03905282
Cl     -23.03905282      21.50311596       5.77348794
Cl     -12.47262484      -5.58835794      23.03905282
Cl     -23.03905282      21.50311596      11.54697589
I     -12.47262484       0.18513000      23.03905282
Cl     -23.03905282      21.50311596      17.32046383
I     -12.47262484       5.95861742      23.03905282
I     -12.47262484      11.73210536      23.03905282
Cl     -12.47262484      17.50559330      23.03905282
Cl      -9.40075113     -20.57746701      23.03905282
Cl      -9.40075113     -14.80397907      23.03905282
Cl      -3.25700371      -8.66023165     -23.03905282
Cl      -3.25700371     -14.43371960     -23.03905282
Cl      -9.40075113      -2.51648423     -23.03905282
I      -9.40075113       3.25700371     -23.03905282
Cl      -9.40075113       9.03049112     -23.03905282
Cl      -9.40075113      14.80397907     -23.03905282
Cl      -9.40075113      20.57746701     -23.03905282
I      -6.14374742     -17.32046383     -23.03905282
I      -6.14374742     -11.54697589     -23.03905282
Cl      21.31798596      14.43371960     -23.03905282
Cl      -3.25700371      -2.88674371     -23.03905282
Cl      -3.25700371       2.88674371     -23.03905282
Cl       6.14374742     -17.32046383     -23.03905282
Cl      -3.25700371       8.66023165     -23.03905282
Cl      -3.25700371      14.43371960     -23.03905282
Cl      -3.25700371      20.20720754     -23.03905282
Cl       0.00000000     -17.32046383     -23.03905282
Cl      15.17423854     -20.20720754     -23.03905282
Cl       6.14374742     -11.54697589     -23.03905282
Cl      15.17423854     -14.43371960     -23.03905282
Cl       6.14374742      -5.77348794     -23.03905282
I      15.17423854      -8.66023165     -23.03905282
Cl       6.14374742       0.00000000     -23.03905282
Cl      15.17423854      -2.88674371     -23.03905282
Cl       6.14374742       5.77348794     -23.03905282
Cl      15.17423854       2.88674371     -23.03905282
Cl      15.17423854       8.66023165     -23.03905282
Cl       6.14374742      11.54697589     -23.03905282
Cl      15.17423854      14.43371960     -23.03905282
I       6.14374742      17.32046383     -23.03905282
Cl      15.17423854      20.20720754     -23.03905282
I      21.31798596       8.66023165     -23.03905282
I       9.03049112     -20.20720754     -23.03905282
Cl      18.43124225     -17.32046383     -23.03905282
Cl       9.03049112     -14.43371960     -23.03905282
Cl      18.43124225     -11.54697589     -23.03905282
Cl       9.03049112      -8.66023165     -23.03905282
Cl      18.43124225      -5.77348794     -23.03905282
Cl       9.03049112      -2.88674371     -23.03905282
Cl      18.43124225       0.00000000     -23.03905282
I       9.03049112       2.88674371     -23.03905282
Cl      18.43124225       5.77348794     -23.03905282
Cl       9.03049112       8.66023165     -23.03905282
I      18.43124225      11.54697589     -23.03905282
I       9.03049112      14.43371960     -23.03905282
Cl      18.43124225      17.32046383     -23.03905282
Cl       9.03049112      20.20720754     -23.03905282
Cl       0.00000000     -11.54697589     -23.03905282
Cl       0.00000000      -5.77348794     -23.03905282
Cl       0.00000000       0.00000000     -23.03905282
Cl       0.00000000       5.77348794     -23.03905282
Cl       0.00000000      11.54697589     -23.03905282
Cl       0.00000000      17.32046383     -23.03905282
Cl      21.31798596       2.88674371     -23.03905282
Cl       2.88674371     -20.20720754     -23.03905282
Cl      -6.14374742      -5.77348794     -23.03905282
Cl      12.28749483     -18.43124225     -23.03905282
Cl      -6.14374742       0.00000000     -23.03905282
Cl      12.28749483     -11.54697589     -23.03905282
Cl      -6.14374742       5.77348794     -23.03905282
Cl      12.28749483      -5.77348794     -23.03905282
Cl      -6.14374742      11.54697589     -23.03905282
Cl      12.28749483       0.00000000     -23.03905282
Cl      -6.14374742      17.32046383     -23.03905282
Cl      12.28749483       5.77348794     -23.03905282
Cl      12.28749483      11.54697589     -23.03905282
Cl      21.31798596      -2.88674371     -23.03905282
Cl      -3.25700371     -20.20720754     -23.03905282
Cl      12.28749483      18.43124225     -23.03905282
Cl      21.31798596      20.20720754     -23.03905282
Cl       2.88674371     -14.43371960     -23.03905282
I       2.88674371      -8.66023165     -23.03905282
Cl       2.88674371      -2.88674371     -23.03905282
Cl       2.88674371       2.88674371     -23.03905282
Cl       2.88674371       8.66023165     -23.03905282
Cl       2.88674371      14.43371960     -23.03905282
Cl       2.88674371      20.20720754     -23.03905282
I      21.31798596     -20.20720754     -23.03905282
I     -21.50311596     -21.50311596     -23.03905282
Cl     -21.50311596     -15.35936854     -23.03905282
Cl     -21.50311596      -9.21562113     -23.03905282
Cl     -21.50311596      -3.07187371     -23.03905282
I     -21.50311596       3.07187371     -23.03905282
Cl     -21.50311596       9.21562113     -23.03905282
Cl     -21.50311596      15.35936854     -23.03905282
I     -21.50311596      21.50311596     -23.03905282
Cl     -18.43124225     -17.32046383     -23.03905282
Cl     -18.43124225     -11.54697589     -23.03905282
Cl     -18.43124225      -5.77348794     -23.03905282
I     -18.43124225       0.00000000     -23.03905282
I     -18.43124225       5.77348794     -23.03905282
Cl     -18.43124225      11.54697589     -23.03905282
Cl     -18.43124225      17.32046383     -23.03905282
Cl      21.31798596     -14.43371960     -23.03905282
I     -15.54449854     -20.20720754     -23.03905282
I     -15.54449854     -14.43371960     -23.03905282
Cl     -15.54449854      -8.66023165     -23.03905282
I     -15.54449854      -2.88674371     -23.03905282
I     -15.54449854       2.88674371     -23.03905282
I     -15.54449854       8.66023165     -23.03905282
Cl     -15.54449854      14.43371960     -23.03905282
Cl     -15.54449854      20.20720754     -23.03905282
I     -12.28749483     -17.69072331     -23.03905282
I     -12.28749483     -11.91723536     -23.03905282
Cl     -12.28749483      -6.14374742     -23.03905282
I     -12.28749483      -0.37025947     -23.03905282
I     -12.28749483       5.40322847     -23.03905282
Cl     -12.47262484      12.47262484     -23.03905282
Cl     -12.47262484      18.24611225     -23.03905282
Cl      21.31798596      -8.66023165     -23.03905282
I      -9.40075113     -21.31798596     -23.03905282
I      -9.40075113     -15.54449854     -23.03905282
Cl      -9.40075113      -8.28997218     -23.03905282
